Call flow plotter
===================
Sonny Rajagopalan
02/20/2013.

Input file: Call flow file: example.cff
Output file: SVG

First working version: 02/23/2013.
